Circuit: * C:\Users\omer-\Documents\LTspiceXVII\1-bit comparator.asc

WARNING: Less than two connections to node ABIGGERB.  This node is used by A1.
WARNING: Less than two connections to node ASMALLERB.  This node is used by A2.
WARNING: Less than two connections to node AEQB.  This node is used by A3.
Direct Newton iteration for .op point succeeded.

Date: Wed Apr 24 04:11:55 2024
Total elapsed time: 0.032 seconds.

tnom = 27
temp = 27
method = modified trap
totiter = 4028
traniter = 4021
tranpoints = 1902
accept = 1761
rejected = 141
matrix size = 11
fillins = 0
solver = Normal
Matrix Compiler1: 342 bytes object code size  0.3/0.0/[0.0]
Matrix Compiler2: 667 bytes object code size  0.0/0.1/[0.0]

