Circuit: * C:\Users\omer-\Documents\LTspiceXVII\2-1 mux.asc

WARNING: Less than two connections to node OUT.  This node is used by A7.
Direct Newton iteration for .op point succeeded.

Date: Wed Jun 05 21:25:49 2024
Total elapsed time: 0.041 seconds.

tnom = 27
temp = 27
method = modified trap
totiter = 3936
traniter = 3929
tranpoints = 1930
accept = 1787
rejected = 143
matrix size = 21
fillins = 0
solver = Normal
Matrix Compiler1: 554 bytes object code size  0.1/0.1/[0.1]
Matrix Compiler2: 1.09 KB object code size  0.1/0.1/[0.1]

