Circuit: * C:\Users\omer-\Documents\LTspiceXVII\2-4 decoder.asc

WARNING: Less than two connections to node D0.  This node is used by A1.
WARNING: Less than two connections to node AX.  This node is used by A5.
WARNING: Less than two connections to node BX.  This node is used by A6.
Direct Newton iteration for .op point succeeded.

Date: Wed Apr 24 01:18:50 2024
Total elapsed time: 0.046 seconds.

tnom = 27
temp = 27
method = modified trap
totiter = 2921
traniter = 2914
tranpoints = 1405
accept = 1347
rejected = 58
matrix size = 14
fillins = 0
solver = Normal
Matrix Compiler1: off  [0.1]/0.1/0.1
Matrix Compiler2: off  [0.0]/0.1/0.1

