Circuit: * C:\Users\omer-\Documents\LTspiceXVII\2-bit half+full adder.asc

WARNING: Less than two connections to node CARRY1.  This node is used by A9.
WARNING: Less than two connections to node SUM1.  This node is used by A11.
WARNING: Less than two connections to node SUM0.  This node is used by A2.
Direct Newton iteration for .op point succeeded.

Date: Fri Mar 15 01:33:34 2024
Total elapsed time: 0.048 seconds.

tnom = 27
temp = 27
method = modified trap
totiter = 6011
traniter = 6006
tranpoints = 2983
accept = 2696
rejected = 287
matrix size = 15
fillins = 0
solver = Normal
Matrix Compiler1: 272 bytes object code size  0.0/0.0/[0.0]
Matrix Compiler2: off  [0.0]/0.1/0.1

