Circuit: * C:\Users\omer-\Documents\LTspiceXVII\2-bit full adder.asc

WARNING: Less than two connections to node SUM0.  This node is used by A5.
WARNING: Less than two connections to node CARRY.  This node is used by A9.
WARNING: Less than two connections to node SUM1.  This node is used by A11.
Direct Newton iteration for .op point succeeded.

Date: Sun Mar 03 19:21:07 2024
Total elapsed time: 0.031 seconds.

tnom = 27
temp = 27
method = modified trap
totiter = 3880
traniter = 3874
tranpoints = 1923
accept = 1780
rejected = 143
matrix size = 20
fillins = 0
solver = Normal
Matrix Compiler1:      24 opcodes  0.1/[0.0]/0.0
Matrix Compiler2: off  [0.0]/0.1/0.1

