Circuit: * C:\Users\omer-\Documents\LTspiceXVII\3-8 decoder using 2-4.asc

WARNING: Less than two connections to node D0.  This node is used by A1.
WARNING: Less than two connections to node D4.  This node is used by A5.
WARNING: Less than two connections to node D5.  This node is used by A6.
WARNING: Less than two connections to node D6.  This node is used by A7.
WARNING: Less than two connections to node D7.  This node is used by A8.
WARNING: Less than two connections to node SUM.  This node is used by A9.
Direct Newton iteration for .op point succeeded.
Heightened Def Con from 0.003 ++++++++++++++++++++to 0.003
Heightened Def Con from 0.004 ++++++++++++++++++++to 0.004

Date: Wed Jun 05 22:59:52 2024
Total elapsed time: 0.094 seconds.

tnom = 27
temp = 27
method = modified trap
totiter = 8906
traniter = 8892
tranpoints = 2360
accept = 1826
rejected = 576
matrix size = 27
fillins = 0
solver = Normal
Matrix Compiler1: 908 bytes object code size  0.2/0.1/[0.1]
Matrix Compiler2: 1.69 KB object code size  0.1/0.2/[0.1]

