Circuit: * C:\Users\omer-\Documents\LTspiceXVII\CMOS_ring.asc

