Circuit: * C:\Users\omer-\Documents\LTspiceXVII\comparator.asc

Direct Newton iteration for .op point succeeded.

Date: Fri Mar 15 01:08:20 2024
Total elapsed time: 0.031 seconds.

tnom = 27
temp = 27
method = modified trap
totiter = 3751
traniter = 3742
tranpoints = 1434
accept = 1309
rejected = 125
matrix size = 12
fillins = 0
solver = Normal
Matrix Compiler1: 432 bytes object code size  0.1/0.0/[0.0]
Matrix Compiler2: off  [0.1]/0.1/0.1

