Circuit: * C:\Users\omer-\Documents\LTspiceXVII\D HALFMOTHERF.asc

WARNING: Less than two connections to node OUT.  This node is used by A1.
Direct Newton iteration for .op point succeeded.

Date: Tue Apr 16 22:59:45 2024
Total elapsed time: 0.018 seconds.

tnom = 27
temp = 27
method = modified trap
totiter = 5938
traniter = 5935
tranpoints = 2968
accept = 2681
rejected = 287
matrix size = 5
fillins = 0
solver = Normal
Matrix Compiler1: 96 bytes object code size  0.0/0.0/[0.0]
Matrix Compiler2: 227 bytes object code size  0.0/0.0/[0.0]

