Circuit: * C:\Users\omer-\Documents\LTspiceXVII\d_flipflop_tgate_deneme.asc

WARNING: Node NC_01 is floating.
WARNING: Node NC_02 is floating.
WARNING: Node NC_03 is floating.
WARNING: Node NC_04 is floating.
WARNING: Node NC_05 is floating.
WARNING: Node NC_06 is floating.
WARNING: Node NC_07 is floating.
WARNING: Node NC_08 is floating.
WARNING: Node NC_09 is floating.
WARNING: Node NC_10 is floating.
WARNING: Node NC_11 is floating.
WARNING: Node NC_12 is floating.

Direct Newton iteration for .op point succeeded.
Heightened Def Con from 4.65102e-010 +++++++++++to 4.65233e-010
Heightened Def Con from 0.01 ++++++++++++to 0.01
Heightened Def Con from 0.01 +to 0.01
Heightened Def Con from 0.02 ++to 0.02
Heightened Def Con from 0.03 +to 0.03
Heightened Def Con from 0.04 +++++++++to 0.04
Heightened Def Con from 0.05 +to 0.05
Heightened Def Con from 0.055 +++++++++++++++++to 0.055
Heightened Def Con from 0.055 ++++++++++++to 0.055
Heightened Def Con from 0.065 +++++++++++++++++to 0.065
Heightened Def Con from 0.075 +++++++++++++++++to 0.075
Heightened Def Con from 0.075 ++++++++++++to 0.075
Heightened Def Con from 0.085 +++++++++++++++++to 0.085
Heightened Def Con from 0.095 +++++++++++++++++to 0.095
Heightened Def Con from 0.095 ++++++++++++to 0.095
Heightened Def Con from 0.1 ++++to 0.1
Heightened Def Con from 0.11 ++++++++to 0.11
Heightened Def Con from 0.12 to 0.12
Heightened Def Con from 0.13 +++++++++++++to 0.13
Heightened Def Con from 0.13 +++to 0.13
Heightened Def Con from 0.14 ++++++++++++to 0.14
Heightened Def Con from 0.14 +to 0.14
Heightened Def Con from 0.145 +++++++++++++++++to 0.145
Heightened Def Con from 0.145 ++++++++++++to 0.145
Heightened Def Con from 0.155 ++++++++++++++++to 0.155
Heightened Def Con from 0.165 +++++++++++++++++to 0.165
Heightened Def Con from 0.165 ++++++++++++to 0.165
Heightened Def Con from 0.175 ++++++++++++++++to 0.175
Heightened Def Con from 0.185 +++++++++++++++++to 0.185
Heightened Def Con from 0.185 ++++++++++++to 0.185
Heightened Def Con from 0.195 ++++++++++++++++to 0.195
Heightened Def Con from 0.2 +++++++++++++to 0.2
Heightened Def Con from 0.2 +++to 0.2
Heightened Def Con from 0.21 ++++++++++++to 0.21
Heightened Def Con from 0.21 +to 0.21
Heightened Def Con from 0.22 +++++++++++++to 0.22
Heightened Def Con from 0.22 +++to 0.22
Heightened Def Con from 0.23 ++++++++++++to 0.23
Heightened Def Con from 0.23 +to 0.23
Heightened Def Con from 0.24 +++++++++++++to 0.24
Heightened Def Con from 0.24 +++to 0.24
Heightened Def Con from 0.245 ++++++++++++++++to 0.245
Heightened Def Con from 0.255 +++++++++++++++++to 0.255
Heightened Def Con from 0.255 ++++++++++++to 0.255
Heightened Def Con from 0.265 ++++++++++++++++to 0.265
Heightened Def Con from 0.275 +++++++++++++++++to 0.275
Heightened Def Con from 0.275 ++++++++++++to 0.275
Heightened Def Con from 0.285 ++++++++++++++++to 0.285
Heightened Def Con from 0.295 +++++++++++++++++to 0.295
Heightened Def Con from 0.295 ++++++++++++to 0.295
Heightened Def Con from 0.3 ++++++++++++to 0.3
Heightened Def Con from 0.3 +to 0.3
Heightened Def Con from 0.31 +++++++++++++to 0.31
Heightened Def Con from 0.31 +++to 0.31
Heightened Def Con from 0.32 ++++++++++++to 0.32
Heightened Def Con from 0.32 +to 0.32
Heightened Def Con from 0.33 +++++++++++++to 0.33
Heightened Def Con from 0.33 +++to 0.33
Heightened Def Con from 0.34 ++++++++++++to 0.34
Heightened Def Con from 0.34 +to 0.34
Heightened Def Con from 0.345 +++++++++++++++++to 0.345
Heightened Def Con from 0.345 ++++++++++++to 0.345
Heightened Def Con from 0.355 ++++++++++++++++to 0.355
Heightened Def Con from 0.365 +++++++++++++++++to 0.365
Heightened Def Con from 0.365 ++++++++++++to 0.365
Heightened Def Con from 0.375 ++++++++++++++++to 0.375
Heightened Def Con from 0.385 +++++++++++++++++to 0.385
Heightened Def Con from 0.385 ++++++++++++to 0.385
Heightened Def Con from 0.39 ++++++++++++to 0.39
Heightened Def Con from 0.39 +to 0.39

Date: Sun May 05 16:42:43 2024
Total elapsed time: 0.813 seconds.

tnom = 27
temp = 27
method = modified trap
totiter = 147158
traniter = 147121
tranpoints = 28622
accept = 19524
rejected = 9914
matrix size = 27
fillins = 0
solver = Normal
Matrix Compiler1: 3.33 KB object code size  0.4/0.2/[0.1]
Matrix Compiler2: off  [0.2]/0.3/0.3

