Circuit: * C:\Users\omer-\Documents\LTspiceXVII\D_FLIPFLOP_CMOS.asc

Direct Newton iteration for .op point succeeded.

Date: Tue Apr 16 22:48:41 2024
Total elapsed time: 0.063 seconds.

tnom = 27
temp = 27
method = modified trap
totiter = 7296
traniter = 7281
tranpoints = 2273
accept = 2041
rejected = 232
matrix size = 15
fillins = 0
solver = Normal
Matrix Compiler1: 1.08 KB object code size  0.2/0.1/[0.1]
Matrix Compiler2: 1.55 KB object code size  0.1/0.1/[0.1]

