Circuit: * C:\Users\omer-\Documents\LTspiceXVII\D_FLIPFLOP_USING_D_LATCH.asc

Direct Newton iteration failed to find .op point.  (Use ".option noopiter" to skip.)
Starting Gmin stepping
Gmin = 10
Gmin = 1.07374
vernier = 0.5
vernier = 0.25
vernier = 0.125
vernier = 0.0625
Gmin = 0.995033
vernier = 0.03125
vernier = 0.015625
vernier = 0.0078125
vernier = 0.00390625
Gmin = 0.999816
vernier = 0.00195313
vernier = 0.000976563
vernier = 0.000488281
Gmin = 0
Gmin stepping failed

Starting source stepping with srcstepmethod=0
Could not converge to DC with sources off!
Starting source stepping with srcstepmethod=1
Could not converge to DC with sources off!
Pseudo Transient failed in finding the operating point at 0 s.
Trouble finding operating point....skipping operating point for Transient analysis.
Changing Tseed to 9.76562e-009
Changing Tseed to 9.76563e-011
to 1.95313e-010
Heightened Def Con from 0.001 ++++++++++++++++++++to 0.001
Heightened Def Con from 0.002 ++++++++++++++++++++to 0.002
Heightened Def Con from 0.003 ++++++++++++++++++++to 0.003
Heightened Def Con from 0.004 ++++++++++++++++++++to 0.004
Heightened Def Con from 0.0094 ++++++++++++++++++++to 0.0094
Heightened Def Con from 0.01 ++++++++++++++++++++to 0.01
Heightened Def Con from 0.011 ++++++++++++++++++++to 0.011
Heightened Def Con from 0.012 ++++++++++++++++++++to 0.012
Heightened Def Con from 0.013 ++++++++++++++++++++to 0.013
Heightened Def Con from 0.014 ++++++++++++++++++++to 0.014
Heightened Def Con from 0.019 ++++++++++++++++++++to 0.019
Heightened Def Con from 0.02 ++++++++++++++++++++to 0.02
Heightened Def Con from 0.021 ++++++++++++++++++++to 0.021
Heightened Def Con from 0.022 ++++++++++++++++++++to 0.022
Heightened Def Con from 0.023 ++++++++++++++++++++to 0.023
Heightened Def Con from 0.0282 ++++++++++++++++++++to 0.0282
Heightened Def Con from 0.029 ++++++++++++++++++++to 0.029
Heightened Def Con from 0.03 ++++++++++++++++++++to 0.03
Heightened Def Con from 0.031 ++++++++++++++++++++to 0.031
Heightened Def Con from 0.032 ++++++++++++++++++++to 0.032
Heightened Def Con from 0.0376 ++++++++++++++++++++to 0.0376
Heightened Def Con from 0.038 ++++++++++++++++++++to 0.038
Heightened Def Con from 0.039 ++++++++++++++++++++to 0.039
Heightened Def Con from 0.04 ++++++++++++++++++++to 0.04
Heightened Def Con from 0.041 ++++++++++++++++++++to 0.041
Heightened Def Con from 0.042 ++++++++++++++++++++to 0.042
Heightened Def Con from 0.047 ++++++++++++++++++++to 0.047
Heightened Def Con from 0.048 ++++++++++++++++++++to 0.048
Heightened Def Con from 0.049 ++++++++++++++++++++to 0.049
Heightened Def Con from 0.05 ++++++++++++++++++++to 0.05
Heightened Def Con from 0.051 ++++++++++++++++++++to 0.051
Heightened Def Con from 0.0564 ++++++++++++++++++++to 0.0564
Heightened Def Con from 0.057 ++++++++++++++++++++to 0.057
Heightened Def Con from 0.058 ++++++++++++++++++++to 0.058
Heightened Def Con from 0.059 ++++++++++++++++++++to 0.059
Heightened Def Con from 0.06 ++++++++++++++++++++to 0.06
Heightened Def Con from 0.061 ++++++++++++++++++++to 0.061
Heightened Def Con from 0.066 ++++++++++++++++++++to 0.066
Heightened Def Con from 0.067 ++++++++++++++++++++to 0.067
Heightened Def Con from 0.068 ++++++++++++++++++++to 0.068
Heightened Def Con from 0.069 ++++++++++++++++++++to 0.069
Heightened Def Con from 0.07 ++++++++++++++++++++to 0.07
Heightened Def Con from 0.0752 ++++++++++++++++++++to 0.0752
Heightened Def Con from 0.076 ++++++++++++++++++++to 0.076
Heightened Def Con from 0.077 ++++++++++++++++++++to 0.077
Heightened Def Con from 0.078 ++++++++++++++++++++to 0.078
Heightened Def Con from 0.079 ++++++++++++++++++++to 0.079
Heightened Def Con from 0.0846 ++++++++++++++++++++to 0.0846
Heightened Def Con from 0.085 ++++++++++++++++++++to 0.085
Heightened Def Con from 0.086 ++++++++++++++++++++to 0.086
Heightened Def Con from 0.087 ++++++++++++++++++++to 0.087
Heightened Def Con from 0.088 ++++++++++++++++++++to 0.088
Heightened Def Con from 0.089 ++++++++++++++++++++to 0.089
Heightened Def Con from 0.094 ++++++++++++++++++++to 0.094
Heightened Def Con from 0.095 ++++++++++++++++++++to 0.095
Heightened Def Con from 0.096 ++++++++++++++++++++to 0.096
Heightened Def Con from 0.097 ++++++++++++++++++++to 0.097
Heightened Def Con from 0.098 ++++++++++++++++++++to 0.098

Date: Sat Apr 20 18:34:34 2024
Total elapsed time: 0.407 seconds.

tnom = 27
temp = 27
method = modified trap
totiter = 198771
traniter = 170091
tranpoints = 31307
accept = 18568
rejected = 14166
matrix size = 21
fillins = 0
solver = Normal
Matrix Compiler1: 716 bytes object code size  0.1/0.1/[0.1]
Matrix Compiler2: off  [0.1]/0.1/0.1

