Circuit: * C:\Users\omer-\Documents\LTspiceXVII\D_FLIPFLOP_GATE.asc

Direct Newton iteration for .op point succeeded.

Date: Sat Apr 20 17:14:03 2024
Total elapsed time: 0.078 seconds.

tnom = 27
temp = 27
method = modified trap
totiter = 4172
traniter = 4166
tranpoints = 1975
accept = 1817
rejected = 158
matrix size = 11
fillins = 0
solver = Normal
Matrix Compiler1:      17 opcodes  0.1/[0.0]/0.0
Matrix Compiler2: off  [0.0]/0.1/0.0

