Circuit: * C:\Users\omer-\Documents\LTspiceXVII\Draft35.asc

Direct Newton iteration for .op point succeeded.

Date: Mon May 06 13:23:59 2024
Total elapsed time: 0.055 seconds.

tnom = 27
temp = 27
method = modified trap
totiter = 2096
traniter = 2088
tranpoints = 1045
accept = 1045
rejected = 0
matrix size = 10
fillins = 0
solver = Normal
Matrix Compiler1: 274 bytes object code size  0.1/0.1/[0.0]
Matrix Compiler2: 658 bytes object code size  0.1/0.1/[0.0]

