Circuit: * C:\Users\omer-\Documents\LTspiceXVII\Draft42.asc

WARNING: Less than two connections to node CARRY1.  This node is used by A3.
WARNING: Less than two connections to node SUM1.  This node is used by A4.
WARNING: Less than two connections to node SUM0.  This node is used by A6.
WARNING: Less than two connections to node C.  This node is used by V3.
Direct Newton iteration for .op point succeeded.

Date: Mon Apr 22 18:52:01 2024
Total elapsed time: 0.048 seconds.

tnom = 27
temp = 27
method = modified trap
totiter = 6019
traniter = 6014
tranpoints = 2983
accept = 2696
rejected = 287
matrix size = 17
fillins = 0
solver = Normal
Matrix Compiler1: 300 bytes object code size  0.1/0.0/[0.0]
Matrix Compiler2: off  [0.0]/0.1/0.0

