Circuit: * C:\Users\omer-\Documents\LTspiceXVII\Draft58.asc

Direct Newton iteration for .op point succeeded.

Date: Wed Oct 09 10:41:38 2024
Total elapsed time: 0.031 seconds.

tnom = 27
temp = 27
method = modified trap
totiter = 2096
traniter = 2088
tranpoints = 1045
accept = 1045
rejected = 0
matrix size = 5
fillins = 0
solver = Normal
Matrix Compiler1:      14 opcodes  0.1/[0.0]/0.0
Matrix Compiler2: off  [0.0]/0.0/0.0

