Circuit: * C:\Users\omer-\Documents\LTspiceXVII\Draft51.asc

WARNING: Less than two connections to node QREAL.  This node is used by A1.
Direct Newton iteration for .op point succeeded.

Date: Wed Apr 24 17:19:59 2024
Total elapsed time: 0.171 seconds.

tnom = 27
temp = 27
method = modified trap
totiter = 22591
traniter = 22585
tranpoints = 8947
accept = 8324
rejected = 623
matrix size = 9
fillins = 0
solver = Normal
Matrix Compiler1:      17 opcodes  0.1/[0.0]/0.0
Matrix Compiler2: 601 bytes object code size  0.0/0.1/[0.0]

