Circuit: * C:\Users\omer-\Documents\LTspiceXVII\Draft46.asc

Direct Newton iteration for .op point succeeded.

Date: Thu Apr 25 16:04:28 2024
Total elapsed time: 0.016 seconds.

tnom = 27
temp = 27
method = modified trap
totiter = 2097
traniter = 2094
tranpoints = 1048
accept = 1048
rejected = 0
matrix size = 3
fillins = 0
solver = Normal
Matrix Compiler1:       3 opcodes  0.0/[0.0]/0.0
Matrix Compiler2: 175 bytes object code size  0.0/0.0/[0.0]

