Circuit: * C:\Users\omer-\Documents\LTspiceXVII\Draft26.asc

WARNING: Less than two connections to node OUT.  This node is used by M6.
Direct Newton iteration for .op point succeeded.

Date: Mon May 06 12:48:10 2024
Total elapsed time: 0.047 seconds.

tnom = 27
temp = 27
method = modified trap
totiter = 2094
traniter = 2088
tranpoints = 1045
accept = 1045
rejected = 0
matrix size = 5
fillins = 0
solver = Normal
Matrix Compiler1: 150 bytes object code size  0.0/0.0/[0.0]
Matrix Compiler2: off  [0.0]/0.0/0.0

