Circuit: * C:\Users\omer-\Documents\LTspiceXVII\Draft29.asc

WARNING: Less than two connections to node CARRY.  This node is used by A3.
WARNING: Less than two connections to node SUM.  This node is used by A5.
Direct Newton iteration for .op point succeeded.

Date: Fri Mar 15 01:23:50 2024
Total elapsed time: 0.062 seconds.

tnom = 27
temp = 27
method = modified trap
totiter = 3865
traniter = 3860
tranpoints = 1918
accept = 1775
rejected = 143
matrix size = 11
fillins = 0
solver = Normal
Matrix Compiler1: 198 bytes object code size  0.0/0.0/[0.0]
Matrix Compiler2: 475 bytes object code size  0.1/0.1/[0.0]

