Circuit: * C:\Users\omer-\Documents\LTspiceXVII\Draft31.asc

Direct Newton iteration for .op point succeeded.

Date: Thu Mar 28 16:36:25 2024
Total elapsed time: 0.015 seconds.

tnom = 27
temp = 27
method = modified trap
totiter = 2091
traniter = 2088
tranpoints = 1045
accept = 1045
rejected = 0
matrix size = 5
fillins = 0
solver = Normal
Matrix Compiler1: 150 bytes object code size  0.0/0.0/[0.0]
Matrix Compiler2: off  [0.0]/0.0/0.0

