Circuit: * C:\Users\omer-\Documents\LTspiceXVII\Draft48.asc

Direct Newton iteration failed to find .op point.  (Use ".option noopiter" to skip.)
Starting Gmin stepping
Gmin = 10
Gmin = 1.07374
vernier = 0.5
vernier = 0.25
vernier = 0.125
vernier = 0.0625
Gmin = 0.995033
vernier = 0.03125
vernier = 0.015625
vernier = 0.0078125
vernier = 0.00390625
Gmin = 0.999816
vernier = 0.00195313
vernier = 0.000976563
vernier = 0.000488281
Gmin = 0
Gmin stepping failed

Starting source stepping with srcstepmethod=0
Could not converge to DC with sources off!
Starting source stepping with srcstepmethod=1
Could not converge to DC with sources off!
Pseudo Transient failed in finding the operating point at 0 s.
Trouble finding operating point....skipping operating point for Transient analysis.
Changing Tseed to 1e-008
Changing Tseed to 1e-010
Changing Tseed to 1e-007
to 2e-007

Date: Wed Apr 24 17:19:38 2024
Total elapsed time: 0.172 seconds.

tnom = 27
temp = 27
method = modified trap
totiter = 64387
traniter = 35716
tranpoints = 8794
accept = 6745
rejected = 2257
matrix size = 16
fillins = 0
solver = Normal
Matrix Compiler1: 466 bytes object code size  0.1/0.1/[0.1]
Matrix Compiler2: 844 bytes object code size  0.1/0.2/[0.1]

