Circuit: * C:\Users\omer-\Documents\LTspiceXVII\Draft38.asc

WARNING: Less than two connections to node OUT.  This node is used by A1.
Direct Newton iteration for .op point succeeded.

Date: Sat Apr 20 18:44:22 2024
Total elapsed time: 0.078 seconds.

tnom = 27
temp = 27
method = modified trap
totiter = 38338
traniter = 38331
tranpoints = 18899
accept = 16493
rejected = 2406
matrix size = 8
fillins = 0
solver = Normal
Matrix Compiler1: 228 bytes object code size  0.1/0.1/[0.0]
Matrix Compiler2: off  [0.0]/0.1/0.0

