Circuit: * C:\Users\omer-\Documents\LTspiceXVII\Draft34.asc

WARNING: Less than two connections to node A.  This node is used by R2.
Direct Newton iteration for .op point succeeded.

Date: Mon Apr 01 17:51:50 2024
Total elapsed time: 0.015 seconds.

tnom = 27
temp = 27
method = modified trap
totiter = 2085
traniter = 2082
tranpoints = 1042
accept = 1042
rejected = 0
matrix size = 4
fillins = 0
solver = Normal
Matrix Compiler1: 100 bytes object code size  0.0/0.0/[0.0]
Matrix Compiler2:      21 opcodes  0.0/[0.0]/0.0

