Circuit: * C:\Users\omer-\Documents\LTspiceXVII\Draft32.asc

Direct Newton iteration for .op point succeeded.

Date: Sun Mar 03 17:26:59 2024
Total elapsed time: 0.062 seconds.

tnom = 27
temp = 27
method = modified trap
totiter = 2232
traniter = 2211
tranpoints = 1042
accept = 1042
rejected = 0
matrix size = 56
fillins = 4
solver = Normal
Matrix Compiler1: 7.59 KB object code size  0.9/0.5/[0.3]
Matrix Compiler2: 6.60 KB object code size  0.4/0.5/[0.3]

