Circuit: * C:\Users\omer-\Documents\LTspiceXVII\Draft43.asc

Direct Newton iteration for .op point succeeded.

Date: Mon May 06 13:26:11 2024
Total elapsed time: 0.031 seconds.

tnom = 27
temp = 27
method = modified trap
totiter = 2318
traniter = 2314
tranpoints = 1094
accept = 1077
rejected = 17
matrix size = 5
fillins = 0
solver = Normal
Matrix Compiler1:       7 opcodes  0.0/[0.0]/0.0
Matrix Compiler2: 281 bytes object code size  0.0/0.0/[0.0]

