Circuit: * C:\Users\omer-\Documents\LTspiceXVII\Draft47.asc

Direct Newton iteration for .op point succeeded.

Date: Wed May 15 18:57:05 2024
Total elapsed time: 0.046 seconds.

tnom = 27
temp = 27
method = modified trap
totiter = 2099
traniter = 2096
tranpoints = 1049
accept = 1049
rejected = 0
matrix size = 5
fillins = 0
solver = Normal
Matrix Compiler1: 114 bytes object code size  0.0/0.0/[0.0]
Matrix Compiler2: 301 bytes object code size  0.0/0.0/[0.0]

