Circuit: * C:\Users\omer-\Documents\LTspiceXVII\Draft33.asc

Direct Newton iteration for .op point succeeded.

Date: Mon Apr 01 23:32:18 2024
Total elapsed time: 0.016 seconds.

tnom = 27
temp = 27
method = modified trap
totiter = 3322
traniter = 3314
tranpoints = 1287
accept = 1232
rejected = 55
matrix size = 14
fillins = 0
solver = Normal
Matrix Compiler1: 384 bytes object code size  0.1/0.1/[0.0]
Matrix Compiler2: off  [0.0]/0.1/0.1

