Circuit: * C:\Users\omer-\Documents\LTspiceXVII\Draft25.asc

Direct Newton iteration for .op point succeeded.

Date: Mon May 06 12:47:33 2024
Total elapsed time: 0.035 seconds.

tnom = 27
temp = 27
method = modified trap
totiter = 4037
traniter = 4034
tranpoints = 2012
accept = 1825
rejected = 187
matrix size = 5
fillins = 0
solver = Normal
Matrix Compiler1: 78 bytes object code size  0.0/0.0/[0.0]
Matrix Compiler2: off  [0.0]/0.0/0.0

