Circuit: * C:\Users\omer-\Documents\LTspiceXVII\Draft30.asc

Direct Newton iteration for .op point succeeded.

Date: Mon May 06 12:49:02 2024
Total elapsed time: 0.144 seconds.

tnom = 27
temp = 27
method = modified trap
totiter = 2109
traniter = 2082
tranpoints = 1042
accept = 1042
rejected = 0
matrix size = 61
fillins = 14
solver = Normal
Matrix Compiler1: 8.32 KB object code size  1.0/0.5/[0.3]
Matrix Compiler2: 7.29 KB object code size  0.5/0.6/[0.3]

