Circuit: * C:\Users\omer-\Documents\LTspiceXVII\Draft27.asc

WARNING: Less than two connections to node OUT.  This node is used by R3.
Direct Newton iteration for .op point succeeded.

Date: Tue Mar 19 22:58:11 2024
Total elapsed time: 0.016 seconds.

tnom = 27
temp = 27
method = modified trap
totiter = 2091
traniter = 2088
tranpoints = 1045
accept = 1045
rejected = 0
matrix size = 4
fillins = 0
solver = Normal
Matrix Compiler1: 100 bytes object code size  0.0/0.0/[0.0]
Matrix Compiler2: off  [0.0]/0.0/0.6

