Circuit: * C:\Users\omer-\Documents\LTspiceXVII\Draft45.asc

Direct Newton iteration for .op point succeeded.

Date: Thu Apr 25 00:43:30 2024
Total elapsed time: 0.016 seconds.

tnom = 27
temp = 27
method = modified trap
totiter = 4068
traniter = 4065
tranpoints = 2026
accept = 1843
rejected = 183
matrix size = 6
fillins = 0
solver = Normal
Matrix Compiler1: off  [0.0]/0.0/0.0
Matrix Compiler2: off  [0.0]/0.0/0.0

