Circuit: * C:\Users\omer-\Documents\LTspiceXVII\ecl_nor_or_gate.asc

Direct Newton iteration for .op point succeeded.

Date: Wed May 08 17:28:12 2024
Total elapsed time: 0.042 seconds.

tnom = 27
temp = 27
method = modified trap
totiter = 2104
traniter = 2088
tranpoints = 1045
accept = 1045
rejected = 0
matrix size = 15
fillins = 0
solver = Normal
Matrix Compiler1: 542 bytes object code size  0.1/0.1/[0.1]
Matrix Compiler2: off  [0.1]/0.1/0.1

