Circuit: * C:\Users\omer-\Documents\LTspiceXVII\FULL ADDER2.asc

WARNING: Less than two connections to node CARRY.  This node is used by A2.
WARNING: Less than two connections to node SUM.  This node is used by A4.
Direct Newton iteration for .op point succeeded.

Date: Wed Jun 05 21:23:26 2024
Total elapsed time: 0.047 seconds.

tnom = 27
temp = 27
method = modified trap
totiter = 2962
traniter = 2957
tranpoints = 1473
accept = 1402
rejected = 71
matrix size = 11
fillins = 0
solver = Normal
Matrix Compiler1:      13 opcodes  0.0/[0.0]/0.0
Matrix Compiler2: off  [0.0]/0.0/0.0

