Circuit: * C:\Users\omer-\Documents\LTspiceXVII\HALF ADDER.asc

WARNING: Less than two connections to node CARRY.  This node is used by A2.
WARNING: Less than two connections to node SUM.  This node is used by A3.
Direct Newton iteration for .op point succeeded.

Date: Wed Jun 05 23:01:35 2024
Total elapsed time: 0.015 seconds.

tnom = 27
temp = 27
method = modified trap
totiter = 2817
traniter = 2813
tranpoints = 1405
accept = 1350
rejected = 55
matrix size = 6
fillins = 0
solver = Normal
Matrix Compiler1: off  [0.0]/0.0/0.0
Matrix Compiler2: off  [0.0]/0.0/0.0

