Circuit: * C:\Users\omer-\Documents\LTspiceXVII\inverter_1.asc

