Circuit: * C:\Users\omer-\Documents\LTspiceXVII\inverter.asc

Direct Newton iteration for .op point succeeded.

Date: Mon Apr 01 22:07:11 2024
Total elapsed time: 0.041 seconds.

tnom = 27
temp = 27
method = modified trap
totiter = 2087
traniter = 2082
tranpoints = 1042
accept = 1042
rejected = 0
matrix size = 5
fillins = 0
solver = Normal
Matrix Compiler1:       7 opcodes  0.0/[0.0]/0.0
Matrix Compiler2: 301 bytes object code size  0.0/0.0/[0.0]

