Circuit: * C:\Users\omer-\Documents\LTspiceXVII\ne555deneme.asc

Direct Newton iteration failed to find .op point.  (Use ".option noopiter" to skip.)
Starting Gmin stepping
Gmin = 10
Gmin = 1.07374
Gmin = 0.115292
Gmin = 0.0123794
Gmin = 0.00132923
Gmin = 0.000142725
Gmin = 1.5325e-005
Gmin = 1.6455e-006
Gmin = 1.76685e-007
Gmin = 1.89714e-008
Gmin = 2.03704e-009
Gmin = 2.18725e-010
Gmin = 2.34854e-011
Gmin = 2.52173e-012
Gmin = 2.70769e-013
Gmin = 0
Gmin stepping succeeded in finding the operating point.

Heightened Def Con from 5e-010 to 5e-010
Heightened Def Con from 5e-010 +++++++++++++++++++to 1e-009
Heightened Def Con from 0.001 to 0.001
Heightened Def Con from 0.001 ++++++++++++++++++++to 0.001
Heightened Def Con from 0.002 +++++++++++++++++++to 0.002
Heightened Def Con from 0.003 ++++++++++++++++++++to 0.003
Heightened Def Con from 0.004 +++++++++++++++++++to 0.004
Heightened Def Con from 0.005 to 0.005
Heightened Def Con from 0.005 ++++++++++++++++++++to 0.005
Heightened Def Con from 0.006 +++++++++++++++++++to 0.006
Heightened Def Con from 0.007 to 0.007
Heightened Def Con from 0.007 ++++++++++++++++++++to 0.007

Date: Fri Mar 15 14:50:00 2024
Total elapsed time: 0.219 seconds.

tnom = 27
temp = 27
method = modified trap
totiter = 24852
traniter = 24415
tranpoints = 3987
accept = 2200
rejected = 1955
matrix size = 24
fillins = 6
solver = Normal
Matrix Compiler1: 1.38 KB object code size  0.3/0.1/[0.1]
Matrix Compiler2: 2.06 KB object code size  0.2/0.2/[0.1]

