Circuit: * C:\Users\omer-\Documents\LTspiceXVII\NMOS TRANSISTOR.asc

.OP point found by inspection.
.step vgs=0
.step vgs=2
.step vgs=4
.step vgs=6
.step vgs=8
.step vgs=10

Date: Mon May 06 12:29:30 2024
Total elapsed time: 0.084 seconds.

tnom = 27
temp = 27
method = trap
totiter = 3628
traniter = 0
tranpoints = 0
accept = 0
rejected = 0
matrix size = 6
fillins = 0
solver = Normal
Matrix Compiler1:       9 opcodes  0.0/[0.0]/0.0
Matrix Compiler2:      32 opcodes  0.0/[0.0]/0.0

