Circuit: * C:\Users\omer-\Documents\LTspiceXVII\nor_gate.asc

WARNING: Node NC_01 is floating.
WARNING: Node NC_02 is floating.
WARNING: Node NC_03 is floating.
WARNING: Node NC_04 is floating.
WARNING: Node NC_05 is floating.
WARNING: Node NC_06 is floating.
WARNING: Node X2:NC_01 is floating.
WARNING: Node X2:NC_02 is floating.
WARNING: Node X2:NC_03 is floating.
WARNING: Node X2:NC_04 is floating.

WARNING: Less than two connections to node 1.  This node is used by V4.
Direct Newton iteration for .op point succeeded.
Changing Tseed to 1e-010
Changing Tseed to 1e-012
Changing Tseed to 1e-009
Changing Tseed to 1e-013

Date: Tue Apr 23 23:25:36 2024
Total elapsed time: 0.047 seconds.

tnom = 27
temp = 27
method = modified trap
totiter = 3499
traniter = 3473
tranpoints = 1547
accept = 1449
rejected = 94
matrix size = 26
fillins = 0
solver = Normal
Matrix Compiler1: 1.63 KB object code size  0.2/0.1/[0.1]
Matrix Compiler2: 2.53 KB object code size  0.6/0.2/[0.2]

