Circuit: * C:\Users\omer-\Documents\LTspiceXVII\NOT.asc

Direct Newton iteration for .op point succeeded.

Date: Sun Mar 03 12:40:30 2024
Total elapsed time: 0.048 seconds.

tnom = 27
temp = 27
method = modified trap
totiter = 4036
traniter = 4029
tranpoints = 1922
accept = 1779
rejected = 143
matrix size = 5
fillins = 0
solver = Normal
Matrix Compiler1:       8 opcodes  0.0/[0.0]/0.0
Matrix Compiler2: off  [0.0]/0.0/0.0

