Circuit: * C:\Users\omer-\Documents\LTspiceXVII\OPAMP_ORNEK.asc

Direct Newton iteration for .op point succeeded.

Date: Tue Jun 04 14:35:52 2024
Total elapsed time: 0.037 seconds.

tnom = 27
temp = 27
method = modified trap
totiter = 2091
traniter = 2088
tranpoints = 1045
accept = 1045
rejected = 0
matrix size = 8
fillins = 1
solver = Normal
Matrix Compiler1:      17 opcodes  0.1/[0.0]/0.0
Matrix Compiler2: 568 bytes object code size  0.0/0.1/[0.0]

