Circuit: * C:\Users\omer-\Documents\LTspiceXVII\opamp_1.asc

WARNING: Less than two connections to node VR.  This node is used by V2.
Direct Newton iteration for .op point succeeded.

Date: Tue Jun 04 14:28:24 2024
Total elapsed time: 0.016 seconds.

tnom = 27
temp = 27
method = modified trap
totiter = 2099
traniter = 2096
tranpoints = 1049
accept = 1049
rejected = 0
matrix size = 6
fillins = 0
solver = Normal
Matrix Compiler1:       8 opcodes  0.0/[0.0]/0.0
Matrix Compiler2: off  [0.0]/0.0/0.1

